* Black-box entry subcircuit for sky130_ef_sc_hd__decap_12 abstract view
.subckt sky130_ef_sc_hd__decap_12 VPWR VGND VPB VNB
.ends

X_15194__107 clknet_1_1__leaf__02750_ VGND VGND VPWR VPWR net139 sky130_fd_sc_hd__inv_2
X_09671_ mapped_spi_ram.rcv_data\[27\] net17 _05362_ VGND VGND VPWR VPWR _05363_ sky130_fd_sc_hd__a21o_1
X_08622_ CPU.aluIn1\[20\] _04246_ VGND VGND VPWR VPWR _04342_ sky130_fd_sc_hd__or2_1
XFILLER_0_27_82 VPWR VGND VPWR VGND sky130_ef_sc_hd__decap_12
XTAP_TAPCELL_ROW_38_968 VGND VPWR sky130_fd_sc_hd__tapvpwrvgnd_1
X_08553_ CPU.aluIn1\[7\] _04272_ VGND VGND VPWR VPWR _04273_ sky130_fd_sc_hd__or2_1
XTAP_TAPCELL_ROW_124_2388 VGND VPWR sky130_fd_sc_hd__tapvpwrvgnd_1
XFILLER_0_89_494 VGND VGND VPWR VPWR sky130_fd_sc_hd__decap_8
X_08484_ CPU.Bimm\[12\] net1295 VGND VGND VPWR VPWR _04204_ sky130_fd_sc_hd__and2_1
XFILLER_0_43_70 VGND VGND VPWR VPWR sky130_fd_sc_hd__fill_1
XFILLER_0_134_83 VGND VGND VPWR VPWR sky130_fd_sc_hd__fill_1
XFILLER_0_18_701 VGND VGND VPWR VPWR sky130_fd_sc_hd__fill_2
XFILLER_0_58_881 VGND VGND VPWR VPWR sky130_fd_sc_hd__decap_4
XFILLER_0_64_339 VGND VGND VPWR VPWR sky130_fd_sc_hd__fill_1
XFILLER_0_17_222 VGND VGND VPWR VPWR sky130_fd_sc_hd__fill_2
XFILLER_0_57_391 VGND VGND VPWR VPWR sky130_fd_sc_hd__fill_1
XTAP_TAPCELL_ROW_44_1070 VGND VPWR sky130_fd_sc_hd__tapvpwrvgnd_1
XFILLER_0_9_499 VGND VGND VPWR VPWR sky130_fd_sc_hd__fill_2
XFILLER_0_33_704 VGND VGND VPWR VPWR sky130_fd_sc_hd__fill_1
XFILLER_0_45_564 VPWR VGND VPWR VGND sky130_ef_sc_hd__decap_12
XFILLER_0_60_501 VGND VGND VPWR VPWR sky130_fd_sc_hd__fill_2
X_09105_ _04816_ VGND VGND VPWR VPWR _04817_ sky130_fd_sc_hd__dlymetal6s2s_1
X_14653__761 clknet_1_0__leaf__02681_ VGND VGND VPWR VPWR net793 sky130_fd_sc_hd__inv_2
XFILLER_0_32_247 VGND VGND VPWR VPWR sky130_fd_sc_hd__decap_4
X_09036_ _04734_ _04750_ VGND VGND VPWR VPWR _04751_ sky130_fd_sc_hd__nor2_1
XFILLER_0_143_783 VGND VGND VPWR VPWR sky130_fd_sc_hd__fill_1
XFILLER_0_60_589 VGND VGND VPWR VPWR sky130_fd_sc_hd__decap_4
Xhold340 CPU.registerFile\[5\]\[5\] VGND VGND VPWR VPWR net1581 sky130_fd_sc_hd__dlygate4sd3_1
XFILLER_0_41_781 VGND VGND VPWR VPWR sky130_fd_sc_hd__decap_3
XFILLER_0_41_792 VPWR VGND VPWR VGND sky130_ef_sc_hd__decap_12
Xhold351 _04145_ VGND VGND VPWR VPWR net1592 sky130_fd_sc_hd__dlygate4sd3_1
XFILLER_0_7_81 VPWR VGND VPWR VGND sky130_ef_sc_hd__decap_12
Xhold362 CPU.registerFile\[30\]\[21\] VGND VGND VPWR VPWR net1603 sky130_fd_sc_hd__dlygate4sd3_1
XFILLER_0_130_477 VGND VGND VPWR VPWR sky130_fd_sc_hd__decap_3
Xhold373 CPU.registerFile\[14\]\[22\] VGND VGND VPWR VPWR net1614 sky130_fd_sc_hd__dlygate4sd3_1
Xhold384 CPU.registerFile\[18\]\[23\] VGND VGND VPWR VPWR net1625 sky130_fd_sc_hd__dlygate4sd3_1
Xhold395 CPU.registerFile\[4\]\[7\] VGND VGND VPWR VPWR net1636 sky130_fd_sc_hd__dlygate4sd3_1
X_09938_ _05493_ net1699 _05559_ VGND VGND VPWR VPWR _05561_ sky130_fd_sc_hd__mux2_1
X_14051__327 clknet_1_0__leaf__08365_ VGND VGND VPWR VPWR net359 sky130_fd_sc_hd__inv_2
X_09869_ _05007_ VGND VGND VPWR VPWR _05514_ sky130_fd_sc_hd__clkbuf_4
Xhold1040 CPU.registerFile\[1\]\[4\] VGND VGND VPWR VPWR net2281 sky130_fd_sc_hd__dlygate4sd3_1
XFILLER_0_99_225 VGND VGND VPWR VPWR sky130_fd_sc_hd__fill_2
Xhold1051 CPU.registerFile\[27\]\[27\] VGND VGND VPWR VPWR net2292 sky130_fd_sc_hd__dlygate4sd3_1
X_11900_ net2148 _05679_ _06711_ VGND VGND VPWR VPWR _06716_ sky130_fd_sc_hd__mux2_1
Xhold1062 CPU.registerFile\[30\]\[7\] VGND VGND VPWR VPWR net2303 sky130_fd_sc_hd__dlygate4sd3_1
X_12880_ _07260_ VGND VGND VPWR VPWR _07322_ sky130_fd_sc_hd__buf_4
XFILLER_0_87_409 VGND VGND VPWR VPWR sky130_fd_sc_hd__fill_1
Xhold1073 CPU.registerFile\[20\]\[4\] VGND VGND VPWR VPWR net2314 sky130_fd_sc_hd__dlygate4sd3_1
Xhold1084 CPU.registerFile\[21\]\[31\] VGND VGND VPWR VPWR net2325 sky130_fd_sc_hd__dlygate4sd3_1
Xhold1095 CPU.registerFile\[1\]\[26\] VGND VGND VPWR VPWR net2336 sky130_fd_sc_hd__dlygate4sd3_1
XANTENNA_202 _07841_ VGND VGND VPWR VPWR sky130_fd_sc_hd__diode_2
XANTENNA_213 _07999_ VGND VGND VPWR VPWR sky130_fd_sc_hd__diode_2
X_11831_ _06679_ VGND VGND VPWR VPWR _01652_ sky130_fd_sc_hd__clkbuf_1
XANTENNA_224 clknet_1_0__leaf__02720_ VGND VGND VPWR VPWR sky130_fd_sc_hd__diode_2
XTAP_TAPCELL_ROW_16_607 VGND VPWR sky130_fd_sc_hd__tapvpwrvgnd_1
XTAP_TAPCELL_ROW_64_1402 VGND VPWR sky130_fd_sc_hd__tapvpwrvgnd_1
XANTENNA_235 _02855_ VGND VGND VPWR VPWR sky130_fd_sc_hd__diode_2
XANTENNA_246 _03158_ VGND VGND VPWR VPWR sky130_fd_sc_hd__diode_2
XANTENNA_257 _05050_ VGND VGND VPWR VPWR sky130_fd_sc_hd__diode_2
XANTENNA_268 _05381_ VGND VGND VPWR VPWR sky130_fd_sc_hd__diode_2
X_11762_ _04731_ net2398 _06639_ VGND VGND VPWR VPWR _06643_ sky130_fd_sc_hd__mux2_1
XANTENNA_279 _05551_ VGND VGND VPWR VPWR sky130_fd_sc_hd__diode_2
XFILLER_0_67_177 VGND VGND VPWR VPWR sky130_fd_sc_hd__decap_3
X_13501_ CPU.registerFile\[16\]\[18\] CPU.registerFile\[20\]\[18\] _07233_ VGND VGND
+ VPWR VPWR _07926_ sky130_fd_sc_hd__mux2_1
X_10713_ _05520_ net1738 _06045_ VGND VGND VPWR VPWR _06050_ sky130_fd_sc_hd__mux2_1
X_14736__836 clknet_1_0__leaf__02689_ VGND VGND VPWR VPWR net868 sky130_fd_sc_hd__inv_2
XFILLER_0_82_125 VGND VGND VPWR VPWR sky130_fd_sc_hd__fill_1
X_11693_ mapped_spi_ram.rcv_data\[13\] _06590_ _06599_ _06594_ VGND VGND VPWR VPWR
+ _01709_ sky130_fd_sc_hd__o211a_1
XFILLER_0_153_503 VGND VGND VPWR VPWR sky130_fd_sc_hd__fill_1
X_16220_ _08397_ _03691_ _03695_ _02949_ VGND VGND VPWR VPWR _03696_ sky130_fd_sc_hd__a211o_1
X_13432_ _07330_ _07859_ VGND VGND VPWR VPWR _07860_ sky130_fd_sc_hd__or2_1
XFILLER_0_107_920 VPWR VGND VPWR VGND sky130_ef_sc_hd__decap_12
X_10644_ mapped_spi_flash.rcv_data\[2\] _05969_ VGND VGND VPWR VPWR _06007_ sky130_fd_sc_hd__or2_1
X_16151_ _05010_ _03625_ _03628_ VGND VGND VPWR VPWR _03629_ sky130_fd_sc_hd__or3_2
XFILLER_0_51_523 VGND VGND VPWR VPWR sky130_fd_sc_hd__fill_1
X_13363_ _07388_ _07792_ VGND VGND VPWR VPWR _07793_ sky130_fd_sc_hd__or2_1
X_10575_ _05966_ VGND VGND VPWR VPWR _05967_ sky130_fd_sc_hd__clkbuf_2
XFILLER_0_24_748 VGND VGND VPWR VPWR sky130_fd_sc_hd__decap_8
XFILLER_0_23_225 VGND VGND VPWR VPWR sky130_fd_sc_hd__fill_2
Xrebuffer7 net1249 VGND VGND VPWR VPWR net1248 sky130_fd_sc_hd__dlymetal6s2s_1
XFILLER_0_134_761 VGND VGND VPWR VPWR sky130_fd_sc_hd__fill_1
X_15102_ per_uart.uart0.enable16_counter\[10\] _07188_ net1445 VGND VGND VPWR VPWR
+ _02738_ sky130_fd_sc_hd__o21ai_1
XFILLER_0_122_923 VGND VGND VPWR VPWR sky130_fd_sc_hd__fill_1
X_12314_ CPU.aluIn1\[1\] _06970_ _06859_ VGND VGND VPWR VPWR _06971_ sky130_fd_sc_hd__mux2_1
X_16082_ _02914_ _03559_ _03561_ _02864_ VGND VGND VPWR VPWR _03562_ sky130_fd_sc_hd__a211o_1
X_13294_ CPU.registerFile\[28\]\[11\] CPU.registerFile\[24\]\[11\] _07399_ VGND VGND
+ VPWR VPWR _07726_ sky130_fd_sc_hd__mux2_1
XFILLER_0_133_293 VGND VGND VPWR VPWR sky130_fd_sc_hd__decap_4
X_12245_ _06918_ VGND VGND VPWR VPWR _01442_ sky130_fd_sc_hd__clkbuf_1
XPHY_EDGE_ROW_2_Left_161 VGND VGND VPWR VPWR sky130_fd_sc_hd__decap_3
XPHY_EDGE_ROW_39_Left_198 VGND VGND VPWR VPWR sky130_fd_sc_hd__decap_3
XFILLER_0_139_39 VPWR VGND VPWR VGND sky130_ef_sc_hd__decap_12
XTAP_TAPCELL_ROW_75_1575 VGND VPWR sky130_fd_sc_hd__tapvpwrvgnd_1
X_12176_ CPU.aluShamt\[1\] CPU.aluShamt\[0\] VGND VGND VPWR VPWR _06866_ sky130_fd_sc_hd__nor2_1
XTAP_TAPCELL_ROW_75_1586 VGND VPWR sky130_fd_sc_hd__tapvpwrvgnd_1
X_11127_ net2411 _05704_ _06263_ VGND VGND VPWR VPWR _06270_ sky130_fd_sc_hd__mux2_1
X_16984_ clknet_leaf_21_clk _01310_ VGND VGND VPWR VPWR CPU.rs2\[15\] sky130_fd_sc_hd__dfxtp_1
X_14782__878 clknet_1_1__leaf__02693_ VGND VGND VPWR VPWR net910 sky130_fd_sc_hd__inv_2
XFILLER_0_155_27 VPWR VGND VPWR VGND sky130_ef_sc_hd__decap_12
X_11058_ net1712 _05704_ _06226_ VGND VGND VPWR VPWR _06233_ sky130_fd_sc_hd__mux2_1
X_15935_ _02796_ _03418_ VGND VGND VPWR VPWR _03419_ sky130_fd_sc_hd__or2_1
XFILLER_0_3_39 VPWR VGND VPWR VGND sky130_ef_sc_hd__decap_12
X_10009_ net2074 _04714_ _05596_ VGND VGND VPWR VPWR _05599_ sky130_fd_sc_hd__mux2_1
X_15866_ CPU.registerFile\[6\]\[13\] _03057_ _03140_ _03351_ VGND VGND VPWR VPWR _03352_
+ sky130_fd_sc_hd__o211a_1
X_17605_ net794 _01893_ VGND VGND VPWR VPWR CPU.registerFile\[9\]\[23\] sky130_fd_sc_hd__dfxtp_1
X_14817_ clknet_1_1__leaf__07222_ VGND VGND VPWR VPWR _02697_ sky130_fd_sc_hd__buf_1
XTAP_TAPCELL_ROW_35_916 VGND VPWR sky130_fd_sc_hd__tapvpwrvgnd_1
X_15797_ CPU.registerFile\[6\]\[11\] _03057_ _03140_ _03284_ VGND VGND VPWR VPWR _03285_
+ sky130_fd_sc_hd__o211a_1
XFILLER_0_59_634 VGND VGND VPWR VPWR sky130_fd_sc_hd__fill_2
XTAP_TAPCELL_ROW_35_927 VGND VPWR sky130_fd_sc_hd__tapvpwrvgnd_1
XTAP_TAPCELL_ROW_106_2085 VGND VPWR sky130_fd_sc_hd__tapvpwrvgnd_1
XFILLER_0_58_122 VGND VGND VPWR VPWR sky130_fd_sc_hd__fill_2
XTAP_TAPCELL_ROW_106_2096 VGND VPWR sky130_fd_sc_hd__tapvpwrvgnd_1
X_14028__307 clknet_1_1__leaf__08362_ VGND VGND VPWR VPWR net339 sky130_fd_sc_hd__inv_2
XFILLER_0_129_500 VGND VGND VPWR VPWR sky130_fd_sc_hd__fill_2
X_17536_ net725 _01824_ VGND VGND VPWR VPWR CPU.registerFile\[24\]\[18\] sky130_fd_sc_hd__dfxtp_1
XFILLER_0_147_3 VPWR VGND VPWR VGND sky130_ef_sc_hd__decap_12
XFILLER_0_157_853 VPWR VGND VPWR VGND sky130_ef_sc_hd__decap_12
XFILLER_0_46_317 VGND VGND VPWR VPWR sky130_fd_sc_hd__fill_1
X_17467_ net656 _01755_ VGND VGND VPWR VPWR mapped_spi_ram.cmd_addr\[22\] sky130_fd_sc_hd__dfxtp_1
XFILLER_0_13_51 VGND VGND VPWR VPWR sky130_fd_sc_hd__decap_4
XFILLER_0_117_717 VGND VGND VPWR VPWR sky130_fd_sc_hd__decap_8
XFILLER_0_157_897 VPWR VGND VPWR VGND sky130_ef_sc_hd__decap_12
XFILLER_0_129_588 VGND VGND VPWR VPWR sky130_fd_sc_hd__fill_1
X_16418_ CPU.registerFile\[31\]\[29\] _03072_ VGND VGND VPWR VPWR _03888_ sky130_fd_sc_hd__or2_1
XFILLER_0_104_75 VGND VGND VPWR VPWR sky130_fd_sc_hd__fill_2
XFILLER_0_13_73 VGND VGND VPWR VPWR sky130_fd_sc_hd__fill_1
X_17398_ net587 _01686_ VGND VGND VPWR VPWR CPU.registerFile\[13\]\[30\] sky130_fd_sc_hd__dfxtp_1
XFILLER_0_14_203 VGND VGND VPWR VPWR sky130_fd_sc_hd__fill_1
XFILLER_0_6_469 VGND VGND VPWR VPWR sky130_fd_sc_hd__fill_1
X_16349_ CPU.registerFile\[24\]\[27\] _08403_ _02874_ _03820_ VGND VGND VPWR VPWR
+ _03821_ sky130_fd_sc_hd__o211a_1
XTAP_TAPCELL_ROW_95_1907 VGND VPWR sky130_fd_sc_hd__tapvpwrvgnd_1
XFILLER_0_120_41 VGND VGND VPWR VPWR sky130_fd_sc_hd__decap_6
XFILLER_0_42_589 VGND VGND VPWR VPWR sky130_fd_sc_hd__decap_4
XFILLER_0_11_921 VPWR VGND VPWR VGND sky130_ef_sc_hd__decap_12
X_18019_ net1192 _02299_ VGND VGND VPWR VPWR CPU.registerFile\[20\]\[13\] sky130_fd_sc_hd__dfxtp_1
XFILLER_0_140_753 VGND VGND VPWR VPWR sky130_fd_sc_hd__decap_3
XFILLER_0_112_477 VGND VGND VPWR VPWR sky130_fd_sc_hd__decap_8
X_15202__114 clknet_1_0__leaf__02751_ VGND VGND VPWR VPWR net146 sky130_fd_sc_hd__inv_2
XFILLER_0_10_464 VPWR VGND VPWR VGND sky130_ef_sc_hd__decap_12
X_09723_ _04817_ _05412_ VGND VGND VPWR VPWR _05413_ sky130_fd_sc_hd__nor2_1
XTAP_TAPCELL_ROW_126_2417 VGND VPWR sky130_fd_sc_hd__tapvpwrvgnd_1
XTAP_TAPCELL_ROW_126_2428 VGND VPWR sky130_fd_sc_hd__tapvpwrvgnd_1
X_09654_ _04917_ _05346_ VGND VGND VPWR VPWR _05347_ sky130_fd_sc_hd__or2_1
XTAP_TAPCELL_ROW_2_368 VGND VPWR sky130_fd_sc_hd__tapvpwrvgnd_1
XTAP_TAPCELL_ROW_2_379 VGND VPWR sky130_fd_sc_hd__tapvpwrvgnd_1
X_08605_ CPU.aluIn1\[12\] _04261_ VGND VGND VPWR VPWR _04325_ sky130_fd_sc_hd__and2_1
X_09585_ _04504_ _04636_ VGND VGND VPWR VPWR _05280_ sky130_fd_sc_hd__nor2_1
XFILLER_0_96_239 VGND VGND VPWR VPWR sky130_fd_sc_hd__fill_2
XFILLER_0_145_93 VPWR VGND VPWR VGND sky130_ef_sc_hd__decap_12
XFILLER_0_49_122 VGND VGND VPWR VPWR sky130_fd_sc_hd__decap_4
XFILLER_0_54_91 VGND VGND VPWR VPWR sky130_fd_sc_hd__fill_1
X_08536_ CPU.aluIn1\[15\] _04255_ VGND VGND VPWR VPWR _04256_ sky130_fd_sc_hd__nand2_1
XFILLER_0_49_144 VPWR VGND VPWR VGND sky130_ef_sc_hd__decap_12
XFILLER_0_37_306 VGND VGND VPWR VPWR sky130_fd_sc_hd__decap_4
XFILLER_0_49_166 VGND VGND VPWR VPWR sky130_fd_sc_hd__fill_2
XFILLER_0_37_317 VGND VGND VPWR VPWR sky130_fd_sc_hd__decap_4
XFILLER_0_64_103 VGND VGND VPWR VPWR sky130_fd_sc_hd__fill_1
XFILLER_0_9_252 VGND VGND VPWR VPWR sky130_fd_sc_hd__decap_3
XTAP_TAPCELL_ROW_42_1029 VGND VPWR sky130_fd_sc_hd__tapvpwrvgnd_1
XFILLER_0_135_514 VGND VGND VPWR VPWR sky130_fd_sc_hd__fill_2
XFILLER_0_92_467 VGND VGND VPWR VPWR sky130_fd_sc_hd__decap_8
XFILLER_0_52_309 VGND VGND VPWR VPWR sky130_fd_sc_hd__decap_4
XFILLER_0_80_618 VGND VGND VPWR VPWR sky130_fd_sc_hd__fill_1
XFILLER_0_92_489 VGND VGND VPWR VPWR sky130_fd_sc_hd__fill_1
XFILLER_0_61_832 VGND VGND VPWR VPWR sky130_fd_sc_hd__fill_2
XTAP_TAPCELL_ROW_21_687 VGND VPWR sky130_fd_sc_hd__tapvpwrvgnd_1
XTAP_TAPCELL_ROW_154_2882 VGND VPWR sky130_fd_sc_hd__tapvpwrvgnd_1
XFILLER_0_104_923 VGND VGND VPWR VPWR sky130_fd_sc_hd__fill_1
XFILLER_0_21_707 VGND VGND VPWR VPWR sky130_fd_sc_hd__fill_1
X_10360_ _05537_ net2369 _05799_ VGND VGND VPWR VPWR _05802_ sky130_fd_sc_hd__mux2_1
XFILLER_0_61_887 VGND VGND VPWR VPWR sky130_fd_sc_hd__decap_6
XFILLER_0_21_729 VGND VGND VPWR VPWR sky130_fd_sc_hd__fill_1
XFILLER_0_130_230 VGND VGND VPWR VPWR sky130_fd_sc_hd__fill_2
X_09019_ _04471_ _04734_ VGND VGND VPWR VPWR _04735_ sky130_fd_sc_hd__or2_1
XFILLER_0_14_781 VPWR VGND VPWR VGND sky130_ef_sc_hd__decap_12
XFILLER_0_103_466 VGND VGND VPWR VPWR sky130_fd_sc_hd__fill_2
X_10291_ _05537_ net2516 _05762_ VGND VGND VPWR VPWR _05765_ sky130_fd_sc_hd__mux2_1
X_12030_ _04696_ net2132 _06783_ VGND VGND VPWR VPWR _06785_ sky130_fd_sc_hd__mux2_1
Xhold170 CPU.cycles\[18\] VGND VGND VPWR VPWR net1411 sky130_fd_sc_hd__dlygate4sd3_1
XTAP_TAPCELL_ROW_57_1283 VGND VPWR sky130_fd_sc_hd__tapvpwrvgnd_1
Xhold181 _07173_ VGND VGND VPWR VPWR net1422 sky130_fd_sc_hd__dlygate4sd3_1
Xhold192 CPU.cycles\[21\] VGND VGND VPWR VPWR net1433 sky130_fd_sc_hd__dlygate4sd3_1
XFILLER_0_18_29 VPWR VGND VPWR VGND sky130_ef_sc_hd__decap_12
XTAP_TAPCELL_ROW_70_1494 VGND VPWR sky130_fd_sc_hd__tapvpwrvgnd_1
X_15720_ _03208_ _03209_ _08400_ VGND VGND VPWR VPWR _03210_ sky130_fd_sc_hd__mux2_1
X_12932_ _07262_ VGND VGND VPWR VPWR _07373_ sky130_fd_sc_hd__clkbuf_4
XFILLER_0_87_206 VGND VGND VPWR VPWR sky130_fd_sc_hd__fill_1
X_15651_ _02821_ VGND VGND VPWR VPWR _03143_ sky130_fd_sc_hd__clkbuf_4
X_12863_ _07305_ VGND VGND VPWR VPWR _07306_ sky130_fd_sc_hd__clkbuf_4
XFILLER_0_158_617 VGND VGND VPWR VPWR sky130_fd_sc_hd__decap_4
XFILLER_0_157_105 VGND VGND VPWR VPWR sky130_fd_sc_hd__decap_6
X_11814_ _05381_ net1956 _06661_ VGND VGND VPWR VPWR _06670_ sky130_fd_sc_hd__mux2_1
X_18370_ net38 net29 VGND VGND VPWR VPWR mapped_spi_ram.div_counter\[2\] sky130_fd_sc_hd__dfxtp_1
X_15582_ _03072_ _03073_ _03075_ VGND VGND VPWR VPWR _03076_ sky130_fd_sc_hd__o21a_1
X_12794_ _04936_ _05336_ VGND VGND VPWR VPWR _07237_ sky130_fd_sc_hd__nand2_2
XFILLER_0_157_149 VPWR VGND VPWR VGND sky130_ef_sc_hd__decap_12
X_17321_ net510 _01609_ VGND VGND VPWR VPWR CPU.registerFile\[11\]\[17\] sky130_fd_sc_hd__dfxtp_1
XFILLER_0_139_853 VPWR VGND VPWR VGND sky130_ef_sc_hd__decap_12
X_14324__465 clknet_1_0__leaf__08465_ VGND VGND VPWR VPWR net497 sky130_fd_sc_hd__inv_2
XFILLER_0_68_497 VGND VGND VPWR VPWR sky130_fd_sc_hd__fill_2
X_11745_ net1344 _06627_ _06630_ _06632_ VGND VGND VPWR VPWR _01691_ sky130_fd_sc_hd__a22o_1
XFILLER_0_138_363 VGND VGND VPWR VPWR sky130_fd_sc_hd__fill_1
XFILLER_0_139_897 VPWR VGND VPWR VGND sky130_ef_sc_hd__decap_12
X_17252_ net442 _01540_ VGND VGND VPWR VPWR CPU.registerFile\[26\]\[13\] sky130_fd_sc_hd__dfxtp_1
X_13962__247 clknet_1_1__leaf__08356_ VGND VGND VPWR VPWR net279 sky130_fd_sc_hd__inv_2
XFILLER_0_55_169 VGND VGND VPWR VPWR sky130_fd_sc_hd__fill_2
XFILLER_0_83_478 VGND VGND VPWR VPWR sky130_fd_sc_hd__decap_6
X_11676_ _06574_ VGND VGND VPWR VPWR _06590_ sky130_fd_sc_hd__buf_2
XFILLER_0_154_867 VGND VGND VPWR VPWR sky130_fd_sc_hd__fill_1
XFILLER_0_64_670 VPWR VGND VPWR VGND sky130_ef_sc_hd__decap_12
X_16203_ _03671_ _03678_ _05361_ VGND VGND VPWR VPWR _03679_ sky130_fd_sc_hd__mux2_1
X_13415_ CPU.registerFile\[2\]\[15\] CPU.registerFile\[3\]\[15\] _07263_ VGND VGND
+ VPWR VPWR _07843_ sky130_fd_sc_hd__mux2_1
XFILLER_0_114_709 VPWR VGND VPWR VGND sky130_ef_sc_hd__decap_12
X_17183_ clknet_leaf_25_clk _01471_ VGND VGND VPWR VPWR CPU.Jimm\[13\] sky130_fd_sc_hd__dfxtp_2
X_10627_ mapped_spi_flash.rcv_data\[10\] _05994_ VGND VGND VPWR VPWR _05998_ sky130_fd_sc_hd__or2_1
XTAP_TAPCELL_ROW_40_996 VGND VPWR sky130_fd_sc_hd__tapvpwrvgnd_1
XTAP_TAPCELL_ROW_77_1615 VGND VPWR sky130_fd_sc_hd__tapvpwrvgnd_1
XFILLER_0_107_783 VGND VGND VPWR VPWR sky130_fd_sc_hd__fill_1
X_16134_ CPU.registerFile\[27\]\[21\] CPU.registerFile\[31\]\[21\] _08403_ VGND VGND
+ VPWR VPWR _03612_ sky130_fd_sc_hd__mux2_1
X_13346_ CPU.registerFile\[13\]\[13\] _07772_ _07773_ CPU.registerFile\[9\]\[13\]
+ _07775_ VGND VGND VPWR VPWR _07776_ sky130_fd_sc_hd__o221a_1
XFILLER_0_52_876 VGND VGND VPWR VPWR sky130_fd_sc_hd__decap_8
X_10558_ net1430 _05950_ _05952_ _05954_ VGND VGND VPWR VPWR _02202_ sky130_fd_sc_hd__a22o_1
XFILLER_0_24_589 VGND VGND VPWR VPWR sky130_fd_sc_hd__fill_2
XPHY_EDGE_ROW_47_Left_206 VGND VGND VPWR VPWR sky130_fd_sc_hd__decap_3
XFILLER_0_11_217 VGND VGND VPWR VPWR sky130_fd_sc_hd__decap_6
X_16065_ _03252_ _03536_ _03544_ _02935_ VGND VGND VPWR VPWR _03545_ sky130_fd_sc_hd__o211a_1
X_13277_ CPU.registerFile\[6\]\[11\] CPU.registerFile\[7\]\[11\] _07371_ VGND VGND
+ VPWR VPWR _07709_ sky130_fd_sc_hd__mux2_1
X_10489_ _04512_ net1289 _04544_ VGND VGND VPWR VPWR _05898_ sky130_fd_sc_hd__a21o_1
XFILLER_0_110_937 VGND VGND VPWR VPWR sky130_fd_sc_hd__fill_2
X_12228_ _06905_ VGND VGND VPWR VPWR _01446_ sky130_fd_sc_hd__clkbuf_1
XTAP_TAPCELL_ROW_90_1826 VGND VPWR sky130_fd_sc_hd__tapvpwrvgnd_1
XTAP_TAPCELL_ROW_9_490 VGND VPWR sky130_fd_sc_hd__tapvpwrvgnd_1
X_14034__311 clknet_1_0__leaf__08364_ VGND VGND VPWR VPWR net343 sky130_fd_sc_hd__inv_2
X_12159_ _06852_ VGND VGND VPWR VPWR _01496_ sky130_fd_sc_hd__clkbuf_1
X_16967_ net262 _01293_ VGND VGND VPWR VPWR CPU.registerFile\[4\]\[30\] sky130_fd_sc_hd__dfxtp_1
XTAP_TAPCELL_ROW_108_2125 VGND VPWR sky130_fd_sc_hd__tapvpwrvgnd_1
X_12765__215 clknet_1_0__leaf__07224_ VGND VGND VPWR VPWR net247 sky130_fd_sc_hd__inv_2
X_15918_ CPU.registerFile\[9\]\[15\] CPU.registerFile\[13\]\[15\] _02999_ VGND VGND
+ VPWR VPWR _03402_ sky130_fd_sc_hd__mux2_1
X_16898_ _06515_ VGND VGND VPWR VPWR _04176_ sky130_fd_sc_hd__buf_2
XPHY_EDGE_ROW_56_Left_215 VGND VGND VPWR VPWR sky130_fd_sc_hd__decap_3
X_15849_ CPU.registerFile\[8\]\[13\] _02789_ _03117_ _03334_ VGND VGND VPWR VPWR _03335_
+ sky130_fd_sc_hd__o211a_1
XTAP_TAPCELL_ROW_88_1788 VGND VPWR sky130_fd_sc_hd__tapvpwrvgnd_1
XTAP_TAPCELL_ROW_88_1799 VGND VPWR sky130_fd_sc_hd__tapvpwrvgnd_1
XFILLER_0_149_617 VGND VGND VPWR VPWR sky130_fd_sc_hd__fill_1
XTAP_TAPCELL_ROW_121_2336 VGND VPWR sky130_fd_sc_hd__tapvpwrvgnd_1
X_09370_ CPU.aluIn1\[16\] _04254_ _04698_ _04808_ CPU.aluReg\[16\] VGND VGND VPWR
+ VPWR _05075_ sky130_fd_sc_hd__a32o_1
XFILLER_0_47_604 VPWR VGND VPWR VGND sky130_ef_sc_hd__decap_12
X_14719__820 clknet_1_0__leaf__02688_ VGND VGND VPWR VPWR net852 sky130_fd_sc_hd__inv_2
XFILLER_0_19_328 VGND VGND VPWR VPWR sky130_fd_sc_hd__fill_2
XFILLER_0_47_637 VGND VGND VPWR VPWR sky130_fd_sc_hd__decap_3
XFILLER_0_59_497 VGND VGND VPWR VPWR sky130_fd_sc_hd__fill_1
X_17519_ net708 _01807_ VGND VGND VPWR VPWR CPU.registerFile\[24\]\[1\] sky130_fd_sc_hd__dfxtp_1
XFILLER_0_7_701 VPWR VGND VPWR VGND sky130_ef_sc_hd__decap_12
XFILLER_0_117_503 VGND VGND VPWR VPWR sky130_fd_sc_hd__fill_1
X_14299__442 clknet_1_0__leaf__08463_ VGND VGND VPWR VPWR net474 sky130_fd_sc_hd__inv_2
XFILLER_0_46_147 VGND VGND VPWR VPWR sky130_fd_sc_hd__fill_2
X_14080__353 clknet_1_0__leaf__08368_ VGND VGND VPWR VPWR net385 sky130_fd_sc_hd__inv_2
XFILLER_0_46_158 VGND VGND VPWR VPWR sky130_fd_sc_hd__decap_4
XFILLER_0_129_385 VGND VGND VPWR VPWR sky130_fd_sc_hd__fill_2
XFILLER_0_90_938 VGND VGND VPWR VPWR sky130_fd_sc_hd__fill_1
XFILLER_0_55_681 VGND VGND VPWR VPWR sky130_fd_sc_hd__decap_6
XFILLER_0_131_51 VGND VGND VPWR VPWR sky130_fd_sc_hd__decap_4
XFILLER_0_145_889 VGND VGND VPWR VPWR sky130_fd_sc_hd__decap_6
XFILLER_0_6_277 VPWR VGND VPWR VGND sky130_ef_sc_hd__decap_12
XPHY_EDGE_ROW_65_Left_224 VGND VGND VPWR VPWR sky130_fd_sc_hd__decap_3
XFILLER_0_70_640 VGND VGND VPWR VPWR sky130_fd_sc_hd__fill_1
XFILLER_0_43_865 VGND VGND VPWR VPWR sky130_fd_sc_hd__decap_8
XTAP_TAPCELL_ROW_119_2298 VGND VPWR sky130_fd_sc_hd__tapvpwrvgnd_1
XFILLER_0_15_578 VGND VGND VPWR VPWR sky130_fd_sc_hd__decap_4
XTAP_TAPCELL_ROW_136_2590 VGND VPWR sky130_fd_sc_hd__tapvpwrvgnd_1
XFILLER_0_30_515 VGND VGND VPWR VPWR sky130_fd_sc_hd__fill_1
XFILLER_0_71_3 VGND VGND VPWR VPWR sky130_fd_sc_hd__decap_3
XFILLER_0_112_241 VGND VGND VPWR VPWR sky130_fd_sc_hd__decap_3
XFILLER_0_140_583 VGND VGND VPWR VPWR sky130_fd_sc_hd__fill_2
X_14765__862 clknet_1_0__leaf__02692_ VGND VGND VPWR VPWR net894 sky130_fd_sc_hd__inv_2
X_16525__192 clknet_1_1__leaf__03964_ VGND VGND VPWR VPWR net224 sky130_fd_sc_hd__inv_2
XPHY_EDGE_ROW_74_Left_233 VGND VGND VPWR VPWR sky130_fd_sc_hd__decap_3
X_09706_ _05395_ _05396_ _04670_ VGND VGND VPWR VPWR _05397_ sky130_fd_sc_hd__mux2_1
X_09637_ _04916_ _05327_ _05329_ _04974_ _05330_ VGND VGND VPWR VPWR _05331_ sky130_fd_sc_hd__o221a_1
XFILLER_0_139_105 VGND VGND VPWR VPWR sky130_fd_sc_hd__decap_6
X_09568_ _04671_ _05263_ VGND VGND VPWR VPWR _05264_ sky130_fd_sc_hd__nand2_1
XTAP_TAPCELL_ROW_26_768 VGND VPWR sky130_fd_sc_hd__tapvpwrvgnd_1
XTAP_TAPCELL_ROW_26_779 VGND VPWR sky130_fd_sc_hd__tapvpwrvgnd_1
X_08519_ CPU.rs2\[22\] _04200_ _04205_ VGND VGND VPWR VPWR _04239_ sky130_fd_sc_hd__a21o_1
X_09499_ _04265_ _04740_ VGND VGND VPWR VPWR _05198_ sky130_fd_sc_hd__nor2_1
XTAP_TAPCELL_ROW_156_2911 VGND VPWR sky130_fd_sc_hd__tapvpwrvgnd_1
XFILLER_0_93_754 VGND VGND VPWR VPWR sky130_fd_sc_hd__decap_8
XTAP_TAPCELL_ROW_156_2922 VGND VPWR sky130_fd_sc_hd__tapvpwrvgnd_1
XFILLER_0_37_147 VGND VGND VPWR VPWR sky130_fd_sc_hd__decap_3
XFILLER_0_148_683 VGND VGND VPWR VPWR sky130_fd_sc_hd__decap_8
X_11530_ _04589_ _06491_ VGND VGND VPWR VPWR _06492_ sky130_fd_sc_hd__nor2_2
XFILLER_0_81_938 VGND VGND VPWR VPWR sky130_fd_sc_hd__fill_1
XFILLER_0_19_895 VGND VGND VPWR VPWR sky130_fd_sc_hd__fill_1
XPHY_EDGE_ROW_83_Left_242 VGND VGND VPWR VPWR sky130_fd_sc_hd__decap_3
XFILLER_0_80_437 VGND VGND VPWR VPWR sky130_fd_sc_hd__decap_4
XPHY_EDGE_ROW_137_Right_137 VGND VGND VPWR VPWR sky130_fd_sc_hd__decap_3
XFILLER_0_18_383 VGND VGND VPWR VPWR sky130_fd_sc_hd__decap_4
X_11461_ _06447_ VGND VGND VPWR VPWR _01793_ sky130_fd_sc_hd__clkbuf_1
XFILLER_0_18_394 VGND VGND VPWR VPWR sky130_fd_sc_hd__decap_6
XFILLER_0_45_191 VGND VGND VPWR VPWR sky130_fd_sc_hd__fill_2
X_13200_ _07268_ _07631_ _07634_ VGND VGND VPWR VPWR _07635_ sky130_fd_sc_hd__or3_1
XFILLER_0_33_342 VGND VGND VPWR VPWR sky130_fd_sc_hd__fill_2
XTAP_TAPCELL_ROW_59_1312 VGND VPWR sky130_fd_sc_hd__tapvpwrvgnd_1
X_10412_ _05830_ _05837_ VGND VGND VPWR VPWR _05838_ sky130_fd_sc_hd__and2_1
XTAP_TAPCELL_ROW_59_1323 VGND VPWR sky130_fd_sc_hd__tapvpwrvgnd_1
X_11392_ _05516_ net2408 _06408_ VGND VGND VPWR VPWR _06411_ sky130_fd_sc_hd__mux2_1
X_14180_ clknet_1_1__leaf__08363_ VGND VGND VPWR VPWR _08428_ sky130_fd_sc_hd__buf_1
XFILLER_0_61_673 VGND VGND VPWR VPWR sky130_fd_sc_hd__fill_1
X_13131_ CPU.registerFile\[16\]\[7\] CPU.registerFile\[20\]\[7\] _07457_ VGND VGND
+ VPWR VPWR _07567_ sky130_fd_sc_hd__mux2_1
XFILLER_0_103_241 VGND VGND VPWR VPWR sky130_fd_sc_hd__fill_2
X_10343_ _05520_ net1887 _05788_ VGND VGND VPWR VPWR _05793_ sky130_fd_sc_hd__mux2_1
X_14848__937 clknet_1_0__leaf__02700_ VGND VGND VPWR VPWR net969 sky130_fd_sc_hd__inv_2
X_13062_ _07237_ VGND VGND VPWR VPWR _07500_ sky130_fd_sc_hd__clkbuf_8
X_10274_ _05520_ net2455 _05751_ VGND VGND VPWR VPWR _05756_ sky130_fd_sc_hd__mux2_1
XFILLER_0_29_39 VGND VGND VPWR VPWR sky130_fd_sc_hd__decap_8
XTAP_TAPCELL_ROW_72_1523 VGND VPWR sky130_fd_sc_hd__tapvpwrvgnd_1
XTAP_TAPCELL_ROW_72_1534 VGND VPWR sky130_fd_sc_hd__tapvpwrvgnd_1
X_12013_ _06775_ VGND VGND VPWR VPWR _01566_ sky130_fd_sc_hd__clkbuf_1
X_17870_ net1059 _02154_ VGND VGND VPWR VPWR CPU.registerFile\[28\]\[28\] sky130_fd_sc_hd__dfxtp_1
XPHY_EDGE_ROW_92_Left_251 VGND VGND VPWR VPWR sky130_fd_sc_hd__decap_3
X_16821_ per_uart.uart0.tx_count16\[2\] _04121_ net1593 VGND VGND VPWR VPWR _04124_
+ sky130_fd_sc_hd__a21o_1
XFILLER_0_136_29 VPWR VGND VPWR VGND sky130_ef_sc_hd__decap_12
X_16752_ _04001_ _04067_ _04068_ _04069_ _07123_ VGND VGND VPWR VPWR _04070_ sky130_fd_sc_hd__o311a_1
XFILLER_0_45_49 VGND VGND VPWR VPWR sky130_fd_sc_hd__decap_6
X_15703_ CPU.registerFile\[8\]\[9\] CPU.registerFile\[12\]\[9\] _02798_ VGND VGND
+ VPWR VPWR _03193_ sky130_fd_sc_hd__mux2_1
X_12915_ _07230_ _07335_ _07356_ _07309_ VGND VGND VPWR VPWR _07357_ sky130_fd_sc_hd__a211o_1
X_16683_ _08436_ _08459_ _05329_ VGND VGND VPWR VPWR _04011_ sky130_fd_sc_hd__a21o_1
X_13895_ _08305_ _08307_ _04972_ VGND VGND VPWR VPWR _08308_ sky130_fd_sc_hd__mux2_1
X_15634_ CPU.registerFile\[9\]\[7\] _02778_ _03125_ VGND VGND VPWR VPWR _03126_ sky130_fd_sc_hd__o21a_1
XFILLER_0_0_29 VPWR VGND VPWR VGND sky130_ef_sc_hd__decap_12
X_12846_ _07235_ VGND VGND VPWR VPWR _07289_ sky130_fd_sc_hd__buf_4
XTAP_TAPCELL_ROW_103_2044 VGND VPWR sky130_fd_sc_hd__tapvpwrvgnd_1
XFILLER_0_29_615 VGND VGND VPWR VPWR sky130_fd_sc_hd__fill_1
X_14894__979 clknet_1_1__leaf__02704_ VGND VGND VPWR VPWR net1011 sky130_fd_sc_hd__inv_2
X_18353_ clknet_leaf_6_clk net1685 VGND VGND VPWR VPWR per_uart.uart0.rx_bitcount\[3\]
+ sky130_fd_sc_hd__dfxtp_1
X_15231__140 clknet_1_1__leaf__02754_ VGND VGND VPWR VPWR net172 sky130_fd_sc_hd__inv_2
XFILLER_0_28_114 VGND VGND VPWR VPWR sky130_fd_sc_hd__decap_4
X_15565_ CPU.registerFile\[6\]\[5\] _03057_ _02894_ _03058_ VGND VGND VPWR VPWR _03059_
+ sky130_fd_sc_hd__o211a_1
XFILLER_0_83_220 VGND VGND VPWR VPWR sky130_fd_sc_hd__decap_4
X_17304_ net493 _01592_ VGND VGND VPWR VPWR CPU.registerFile\[11\]\[0\] sky130_fd_sc_hd__dfxtp_1
XFILLER_0_127_823 VGND VGND VPWR VPWR sky130_fd_sc_hd__fill_1
XFILLER_0_139_694 VGND VGND VPWR VPWR sky130_fd_sc_hd__decap_4
X_18284_ net117 _02564_ VGND VGND VPWR VPWR CPU.registerFile\[16\]\[14\] sky130_fd_sc_hd__dfxtp_1
X_11728_ net22 _06617_ net1309 net8 VGND VGND VPWR VPWR _06620_ sky130_fd_sc_hd__a31o_1
XFILLER_0_16_309 VGND VGND VPWR VPWR sky130_fd_sc_hd__fill_1
X_15496_ _02809_ _02988_ _02991_ VGND VGND VPWR VPWR _02992_ sky130_fd_sc_hd__or3_2
XFILLER_0_154_642 VGND VGND VPWR VPWR sky130_fd_sc_hd__fill_2
XFILLER_0_9_27 VPWR VGND VPWR VGND sky130_ef_sc_hd__decap_12
X_17235_ net425 _01523_ VGND VGND VPWR VPWR CPU.registerFile\[27\]\[28\] sky130_fd_sc_hd__dfxtp_1
XPHY_EDGE_ROW_104_Right_104 VGND VGND VPWR VPWR sky130_fd_sc_hd__decap_3
X_11659_ _06515_ VGND VGND VPWR VPWR _06581_ sky130_fd_sc_hd__buf_2
XFILLER_0_25_865 VPWR VGND VPWR VGND sky130_ef_sc_hd__decap_12
XFILLER_0_4_737 VPWR VGND VPWR VGND sky130_ef_sc_hd__decap_12
XFILLER_0_3_225 VPWR VGND VPWR VGND sky130_ef_sc_hd__decap_12
X_17166_ net390 _01454_ VGND VGND VPWR VPWR CPU.aluReg\[30\] sky130_fd_sc_hd__dfxtp_1
XFILLER_0_142_859 VGND VGND VPWR VPWR sky130_fd_sc_hd__decap_8
XFILLER_0_10_41 VPWR VGND VPWR VGND sky130_ef_sc_hd__decap_12
Xclkbuf_0__08431_ _08431_ VGND VGND VPWR VPWR clknet_0__08431_ sky130_fd_sc_hd__clkbuf_16
Xhold906 CPU.registerFile\[16\]\[22\] VGND VGND VPWR VPWR net2147 sky130_fd_sc_hd__dlygate4sd3_1
X_16117_ _02914_ _03593_ _03595_ _02864_ VGND VGND VPWR VPWR _03596_ sky130_fd_sc_hd__a211o_1
Xhold917 CPU.registerFile\[29\]\[4\] VGND VGND VPWR VPWR net2158 sky130_fd_sc_hd__dlygate4sd3_1
Xhold928 CPU.registerFile\[26\]\[13\] VGND VGND VPWR VPWR net2169 sky130_fd_sc_hd__dlygate4sd3_1
X_13329_ _07351_ _07759_ VGND VGND VPWR VPWR _07760_ sky130_fd_sc_hd__or2_1
XFILLER_0_12_548 VGND VGND VPWR VPWR sky130_fd_sc_hd__decap_4
X_17097_ net355 _01419_ VGND VGND VPWR VPWR CPU.registerFile\[29\]\[27\] sky130_fd_sc_hd__dfxtp_1
Xhold939 CPU.registerFile\[29\]\[3\] VGND VGND VPWR VPWR net2180 sky130_fd_sc_hd__dlygate4sd3_1
XFILLER_0_110_701 VGND VGND VPWR VPWR sky130_fd_sc_hd__decap_3
Xclkbuf_1_1__f__02755_ clknet_0__02755_ VGND VGND VPWR VPWR clknet_1_1__leaf__02755_
+ sky130_fd_sc_hd__clkbuf_16
XFILLER_0_10_85 VPWR VGND VPWR VGND sky130_ef_sc_hd__decap_12
XFILLER_0_150_881 VPWR VGND VPWR VGND sky130_ef_sc_hd__decap_12
XFILLER_0_0_921 VGND VGND VPWR VPWR sky130_fd_sc_hd__decap_3
XFILLER_0_110_723 VGND VGND VPWR VPWR sky130_fd_sc_hd__decap_6
Xclkbuf_0__08362_ _08362_ VGND VGND VPWR VPWR clknet_0__08362_ sky130_fd_sc_hd__clkbuf_16
X_16048_ _02936_ _03521_ _03528_ _02934_ VGND VGND VPWR VPWR _03529_ sky130_fd_sc_hd__o211a_1
Xclkbuf_1_1__f__02686_ clknet_0__02686_ VGND VGND VPWR VPWR clknet_1_1__leaf__02686_
+ sky130_fd_sc_hd__clkbuf_16
X_08870_ _04589_ CPU.state\[2\] CPU.state\[3\] VGND VGND VPWR VPWR _04590_ sky130_fd_sc_hd__nor3_4
XTAP_TAPCELL_ROW_4_408 VGND VPWR sky130_fd_sc_hd__tapvpwrvgnd_1
X_17999_ clknet_leaf_7_clk _02283_ VGND VGND VPWR VPWR per_uart.uart0.enable16_counter\[13\]
+ sky130_fd_sc_hd__dfxtp_1
X_09422_ _04895_ _05124_ VGND VGND VPWR VPWR _05125_ sky130_fd_sc_hd__xnor2_1
XFILLER_0_87_570 VGND VGND VPWR VPWR sky130_fd_sc_hd__decap_8
X_09353_ _04442_ _04701_ VGND VGND VPWR VPWR _05059_ sky130_fd_sc_hd__nor2_1
XTAP_TAPCELL_ROW_23_716 VGND VPWR sky130_fd_sc_hd__tapvpwrvgnd_1
XTAP_TAPCELL_ROW_23_727 VGND VPWR sky130_fd_sc_hd__tapvpwrvgnd_1
XFILLER_0_75_754 VGND VGND VPWR VPWR sky130_fd_sc_hd__decap_8
XFILLER_0_19_147 VGND VGND VPWR VPWR sky130_fd_sc_hd__decap_8
XFILLER_0_117_300 VPWR VGND VPWR VGND sky130_ef_sc_hd__decap_12
X_09284_ _04248_ _04339_ _04340_ VGND VGND VPWR VPWR _04993_ sky130_fd_sc_hd__o21a_1
XFILLER_0_90_713 VGND VGND VPWR VPWR sky130_fd_sc_hd__fill_1
XFILLER_0_142_83 VGND VGND VPWR VPWR sky130_fd_sc_hd__fill_1
XFILLER_0_34_106 VGND VGND VPWR VPWR sky130_fd_sc_hd__fill_1
XFILLER_0_62_415 VGND VGND VPWR VPWR sky130_fd_sc_hd__decap_4
XFILLER_0_145_653 VGND VGND VPWR VPWR sky130_fd_sc_hd__decap_4
XFILLER_0_144_141 VPWR VGND VPWR VGND sky130_ef_sc_hd__decap_12
XFILLER_0_34_139 VGND VGND VPWR VPWR sky130_fd_sc_hd__fill_1
XFILLER_0_90_757 VGND VGND VPWR VPWR sky130_fd_sc_hd__decap_6
XFILLER_0_7_597 VGND VGND VPWR VPWR sky130_fd_sc_hd__decap_3
X_14006__287 clknet_1_1__leaf__08360_ VGND VGND VPWR VPWR net319 sky130_fd_sc_hd__inv_2